// Generated for: spectre
// Generated on: Nov 10 20:19:11 2021
// Design library name: MyOwnECE6720
// Design cell name: HW9
// Design view name: schematic
simulator lang=spectre
global 0
