simulator lang=spectre
include "nmos180.scs"
