// Generated for: spectre
// Generated on: Nov  3 20:58:05 2021
// Design library name: MyOwnECE6720
// Design cell name: HW7
// Design view name: schematic
simulator lang=spectre
global 0
